RUNSPEC

METRIC

DIMENS
  46  25  230 /

EQLDIMS
6
/

NODPPM
DUALPORO
DUALPERM

--	слой	1	6	индекс	1	СТ1_1	матрица
--	слой	7	31	индекс	2	СТ1_2	матрица
--	слой	32	59	индекс	3	СТ1_3	матрица
--	слой	60	74	индекс	4	СТ1_4	матрица
--	слой	75	92	индекс	5	СТ1_5	матрица
--	слой	93	115	индекс	6	СТ1_6	матрица
--	слой	116	121	индекс	1	СТ1_1	трещина
--	слой	122	146	индекс	2	СТ1_2	трещина
--	слой	147	174	индекс	3	СТ1_3	трещина
--	слой	175	189	индекс	4	СТ1_4	трещина
--	слой	190	207	индекс	5	СТ1_5	трещина
--	слой	208	230	индекс	6	СТ1_6	трещина

OIL
WATER

--MESSAGES
-- --------------- print limit --------------  ---------------- stop limit ----------------
--   mes     com    war     prb    err   bug      mes     com    war     prb    err   bug
--    1       2      3       4      5     6        1       2      3       4      5     6
--   200000  200000 200000   6000    200    1     200000  200000 200000   6000    200    1  /

WELLDIMS
-- MaxWells  MaxCompl  MaxGroups   MaxWellsPerGroup   MaxSeparatorStages
     200        200        50             20             /
TABDIMS
--   1       2      3       4      5      6      7
-- NTSFUN  NTPVT  NSSFUN  NPPVT  NTFIP  NRPVT  unused  NTENDP
     2      2      1*     1*     2*     1*     /
REGDIMS
--    1      2       3       4        5          6           7
--  NTFIP  NMFIPR  NRFREG  NTFREG  maxTRACK  maxCOALNUM  maxOPERNUM
      2     2       1*      1*       1*         1*          1*   /
FAULTDIM
100000 /

ENDSCALE
/

START
 01 'JAN' 1972 /
/


GRID

NEWTRAN

INCLUDE
'GEOLDP/coord.grdecl' / -- grid 

INCLUDE
'GEOLDP/zcorn.grdecl' / -- grid 

INCLUDE
'GEOLDP/ARRFRACT.grdecl' / -- where fracture filters in z-direction

INCLUDE
'MULTS.inc' / -- MULTS

BOX
1	46	1	25	1	115
 /
INCLUDE
'GEOLDP/NTG.grdecl' / -- NTG

INCLUDE
'GEOLDP/PORO.grdecl' / -- poro

ENDBOX
 /

BOX
1	46	1	25	116	230
 /
INCLUDE
'GEOLDP/NTG.grdecl' / -- NTG

INCLUDE
'GEOLDP/PORO.grdecl' / -- poro

ENDBOX
 /

NOECHO

ARITHMETIC
PORO = ARRMPORO*PORO 
PERMX = 0.2000*EXP(35.37000*PORO)
ARRKX = PERMX 
SOWCR = 0.3878
SWL = MIN(98.2059806 * ((PORO*100)^-2.46377) , 0.6 )
PCW = 0.60764*28*0.318316*((PORO/ARRKX)^0.5)
PCW = PCW * ARRMPCW
PERMY = PERMX
PERMZ = 1 * PERMX
PERMZ = ARRKZFRAC*PERMZ
MULTPV(1:1,1:25,) = 100
MULTPV(46:46,1:25,) = 100
MULTPV(46:46,1:25,) = 100
MULTPV(1:46,25:25,) = 100
MULTPV(1:46,1:1,) = 100
PCW(,,116:230) = 0
SOWCR(,,116:230) = 0.1
SWL(,,116:230) = 0.1
SWCR = SWL 
SIGMAV = 1
SIGMAV(,,1:115) = ARRSIGMA * SIGMAV
PERMX(,,116:230) = 3*PERMX
PORO(,,116:230) = 0.01
NTG(,,160:230) = (NTG==0)*((ARRFRACT==1)*1+(ARRFRACT!=1)*0)+(NTG!=0)*NTG
/

ARITHMETIC
PERMZ(19:21,12:14,30:34) = (PERMX<5)*0 + (PERMX>=5)*PERMZ -- for well 2230
 /

ARITHMETIC
NTG(,,33:56) = (ARRNOTCOLL<=0.85)*0 + NTG*(ARRNOTCOLL>0.85)
NTG(,,148:171) = (ARRNOTCOLL<=0.85)*0 + NTG*(ARRNOTCOLL>0.85)-- убираем ЗОН в 2230 (в матрице и трещинах), так как по
-- нижнему прослою - вероятнее всего ЗОН, и поэтому там мало, что фильтруется. 
-- Тем более вода
 /

PROPS
DENSITY
871   1125.0000      1.3 
/
871   1125.0000      1.3 
/

PVTW
138 1.006	4.5e-5 1.26 0 -- ROX pvt-model
 /
138 1.006	4.5e-5 1.26 0 -- ROX pvt-model
 /

PVCDO
70.1	1.085	6.57445E-05 6.7	2.2E-3 -- Rox model - 133RTM				
/
70.1	1.085	6.57445E-05 6.7	2.2E-3 -- Rox model - 133RTM				
/

SCALECRS
YES
/


SWOF
0.3160000	0.0000000	0.4523810	1.0000000	--	KRO	0.45238
0.3220400	0.0001105	0.4361830	0.9813516	--	KRW	0.05474
0.3280800	0.0003318	0.4202490	0.9634134	--	SWC	0.31600
0.3341200	0.0006313	0.4045800	0.9461450	--	SWOCR	0.38200
0.3401600	0.0009964	0.3891769	0.9295093	--	Pc(max)	0.60764
0.3462000	0.0014195	0.3740411	0.9134715	--	PC_curve	
0.3522400	0.0018955	0.3591736	0.8979997	--	no	1.80484
0.3582800	0.0024205	0.3445755	0.8830640	--	nw	1.58616
0.3643200	0.0029916	0.3302482	0.8686367	--	K_abs(air), D	0.042
0.3703600	0.0036061	0.3161928	0.8546920	--	K_abs(oil), D	0.019
0.3764000	0.0042620	0.3024107	0.8412056	 --	a	0.2
0.3824400	0.0049575	0.2889031	0.8281552	 --	b	-0.923
0.3884800	0.0056912	0.2756715	0.8155197	 --	lower_lim_norm	0.3
0.3945200	0.0064617	0.2627171	0.8032792	 --	upper_lim_norm	1
0.4005600	0.0072676	0.2500415	0.7914154			
0.4066000	0.0081081	0.2376462	0.7799109			
0.4126400	0.0089821	0.2255327	0.7687495			
0.4186800	0.0098887	0.2137026	0.7579157			
0.4247200	0.0108272	0.2021576	0.7473953			
0.4307600	0.0117967	0.1908993	0.7371745			
0.4368000	0.0127966	0.1799296	0.7272408			
0.4428400	0.0138262	0.1692503	0.7175819			
0.4488800	0.0148850	0.1588634	0.7081865			
0.4549200	0.0159724	0.1487708	0.6990438			
0.4609600	0.0170878	0.1389746	0.6901436			
0.4670000	0.0182309	0.1294771	0.6814763			
0.4730400	0.0194011	0.1202806	0.6730328			
0.4790800	0.0205979	0.1113873	0.6648043			
0.4851200	0.0218210	0.1028000	0.6567826			
0.4911600	0.0230701	0.0945212	0.6489601			
0.4972000	0.0243446	0.0865538	0.6413291			
0.5032400	0.0256442	0.0789006	0.6338828			
0.5092800	0.0269687	0.0715650	0.6266143			
0.5153200	0.0283177	0.0645503	0.6195174			
0.5213600	0.0296908	0.0578600	0.6125859			
0.5274000	0.0310878	0.0514981	0.6058140			
0.5334400	0.0325084	0.0454687	0.5991962			
0.5394800	0.0339524	0.0397763	0.5927273			
0.5455200	0.0354194	0.0344258	0.5864023			
0.5515600	0.0369092	0.0294227	0.5802162			
0.5576000	0.0384216	0.0247728	0.5741646			
0.5636400	0.0399562	0.0204828	0.5682430			
0.5696800	0.0415130	0.0165603	0.5624472			
0.5757200	0.0430917	0.0130137	0.5567732			
0.5817600	0.0446921	0.0098531	0.5512172			
0.5878000	0.0463139	0.0070903	0.5457755			
0.5938400	0.0479569	0.0047398	0.5404445			
0.5998800	0.0496211	0.0028201	0.5352209			
0.6059200	0.0513061	0.0013566	0.5301014			
0.6119600	0.0530118	0.0003883	0.5250828			
0.6180000	0.0547381	0.0000000	0.5201622			
0.6311724	0.0873333	0.0000000	0.5097572			
0.6443448	0.1199286	0.0000000	0.4997767			
0.6575172	0.1525238	0.0000000	0.4901948			
0.6706897	0.1851190	0.0000000	0.4809878			
0.6838621	0.2177143	0.0000000	0.4721340			
0.6970345	0.2503095	0.0000000	0.4636131			
0.7102069	0.2829048	0.0000000	0.4554064			
0.7233793	0.3155000	0.0000000	0.4474967			
0.7365517	0.3480952	0.0000000	0.4398679			
0.7497241	0.3806905	0.0000000	0.4325052			
0.7628966	0.4132857	0.0000000	0.4253946			
0.7760690	0.4458810	0.0000000	0.4185234			
0.7892414	0.4784762	0.0000000	0.4118794			
0.8024138	0.5110714	0.0000000	0.4054514			
0.8155862	0.5436667	0.0000000	0.3992290			
0.8287586	0.5762619	0.0000000	0.3932022			
0.8419310	0.6088571	0.0000000	0.3873620			
0.8551034	0.6414524	0.0000000	0.3816996			
0.8682759	0.6740476	0.0000000	0.3762070			
0.8814483	0.7066429	0.0000000	0.3708765			
0.8946207	0.7392381	0.0000000	0.3657010			
0.9077931	0.7718333	0.0000000	0.3606738			
0.9209655	0.8044286	0.0000000	0.3557884			
0.9341379	0.8370238	0.0000000	0.3510389			
0.9473103	0.8696190	0.0000000	0.3464196			
0.9604828	0.9022143	0.0000000	0.3419251			
0.9736552	0.9348095	0.0000000	0.3375505			
0.9868276	0.9674048	0.0000000	0.3332909			
1.0000000	1.0000000	0.0000000	0.0000000			
 /
0.1	0	0.45238	0
0.9	0.05474	0	0
1	1	0	0	
 /

ROCK
 138 5.0E-005 
/
 138 5.0E-005
/

REGIONS

ARITHMETIC
pvtnum=1
satnum=pvtnum 
fipnum=1
eqlnum(,,1:6) = 1  --CT with oil
eqlnum(,,7:59) = 2 --CT with oil
eqlnum(,,60:115) = 3 --CT with water
pvtnum(,,116:230) = pvtnum + 1
satnum(,,116:230) = satnum + 1
eqlnum(,,116:121) = 4  --CT with oil
eqlnum(,,122:174) = 5 --CT with oil
eqlnum(,,175:230) = 6 --CT with water
/

SOLUTION

EQUIL
     1150	138   1155    1*     1*    1*    1	1	0	1*   / 
     1150	138   1155    1*     1*    1*    1	1	0	1*   / 
     1150	138   50    1*     1*    1*    1	1	0	1*   / 
     1150	138   1155    1*     1*    1*    1	1	0	1*   / 
     1150	138   1155    1*     1*    1*    1	1	0	1*   / 
     1150	138   50    1*     1*    1*    1	1	0	1*   / 
/

RSCONST
28.05 1 /
 /

SUMMARY
ALL
FOPRH
FOIRH
FWPRH
FWIRH
FGPRH
FGIRH
FVPRH
FVIRH
FWCTH
FWGRH
WBHPH
FOIPH
FWIPH
FGIPH
FAQRH
GOPRH
GOIRH
GWPRH
GWIRH
GGPRH
GGIRH
GVPRH
GVIRH
GWCTH
GWGRH
WTHPH
FOIPLH
WOPRH
WOIRH
WWPRH
WWIRH
WGPRH
WGIRH
WVPRH
WVIRH
WWCTH
WWGRH
WPIH
FOIPGH
FOPTH
FOITH
FWPTH
FWITH
FGPTH
FGITH
FVPTH
FVITH
FGORH
GOPTH
GOITH
GWPTH
GWITH
GGPTH
GGITH
GVPTH
GVITH
GGORH
WOPTH
WOITH
WWPTH
WWITH
WGPTH
WGITH
WVPTH
WVITH
WGORH
WBP9
WBHP

RECU

Delt 1 month
Rate 1 month EXACT FIELD WELL end
Freq 1  1  1


Array EQUA month end
1/
GENE rest

EFOR WELL 'DD.MM.YYYY' MDL MDU RAD SKIN MULT

EUNI METRes METRes /

HFOR WELL 'DD.MM.YYYY' QOIL QWAT QWIN WEFA THP BHP

HUNI
sm3/day sm3/day ksm3 ksm3 bara /

INCLUDE 
  'GEOLDP/WELL/Well.dat' /
INCLUDE 
  'INCLDP/perf.inc' /
INCLUDE 
  'INCLDP/event.inc' /
INCLUDE 
  'INCLDP/hist.inc' /

READ 1 MAR 2014 /

STOP

